out_measurements_parameter_topology_physical_preview/cases_parameter_error/case_param_topology_err_744864796950.m
function mpc = case_param_topology_err_744864796950
mpc.version = '2';
mpc.baseMVA = 100;

mpc.bus = [
    1 3 0 0 0 0 1 1.06 0 135 1 2 0 0 0 0 0 0;
    2 2 21.7 12.7 0 0 1 1.045 -4.82277102086 135 1 2 0 0 0 0 0 0;
    3 2 47.1 9.5 0 0 1 1.01 -16.5201894855 135 1 2 0 0 0 0 0 0;
    4 2 47.1 9.5 0 0 1 1.01 -5.48424091957 135 1 2 0 0 0 0 0 0;
    5 1 47.8 -3.9 0 0 1 1.01643412617 -11.3790381707 135 1 2 0 0 0 0 0 0;
    6 1 7.6 1.6 0 0 1 1.01819648067 -9.50051644852 135 1 2 0 0 0 0 0 0;
    7 2 11.2 7.5 0 0 1 1.07 -15.0661376583 0.208 1 2 0 0 0 0 0 0;
    8 1 0 0 0 0 1 1.06083038897 -14.3706447023 14 1 2 0 0 0 0 0 0;
    9 2 0 0 0 0 1 1.09 -14.3706447023 12 1 2 0 0 0 0 0 0;
    10 1 29.5 16.6 0 19 1 1.0550712562 -15.9203719334 0.208 1 2 0 0 0 0 0 0;
    11 1 9 5.8 0 0 1 1.05024083757 -16.0550759521 0.208 1 2 0 0 0 0 0 0;
    12 1 3.5 1.8 0 0 1 1.05649323032 -15.6926289304 0.208 1 2 0 0 0 0 0 0;
    13 1 6.1 1.6 0 0 1 1.05514552264 -15.930868831 0.208 1 2 0 0 0 0 0 0;
    14 1 13.5 5.8 0 0 1 1.05022573163 -16.0206776263 0.208 1 2 0 0 0 0 0 0;
    15 1 14.9 5 0 0 1 1.03495836207 -16.9654743516 0.208 1 2 0 0 0 0 0 0;
];

mpc.gen = [
    1 233.560306154 -15.2729665534 0 0 1.06 1 1 1000000000 -1000000000 0 0 0 0 0 0 0 0 0 0 0 0 0 0 0 1;
    2 40 127.686337471 1000000000 -1000000000 1.045 nan 1 1000000000 -1000000000 0 0 0 0 0 0 0 0 0 0 0 0 0 0 0 0;
    3 0 25.916238904 1000000000 -1000000000 1.01 nan 1 1000000000 -1000000000 0 0 0 0 0 0 0 0 0 0 0 0 0 0 0 0;
    4 0 -84.3859944344 1000000000 -1000000000 1.01 nan 1 1000000000 -1000000000 0 0 0 0 0 0 0 0 0 0 0 0 0 0 0 0;
    7 0 13.3630510569 1000000000 -1000000000 1.07 nan 1 1000000000 -1000000000 0 0 0 0 0 0 0 0 0 0 0 0 0 0 0 0;
    9 0 18.0498871803 1000000000 -1000000000 1.09 nan 1 1000000000 -1000000000 0 0 0 0 0 0 0 0 0 0 0 0 0 0 0 0;
];

mpc.branch = [
    1 2 0.01938 0.05917 0.0528 100 0 0 0 0 1 -360 360 152.052202008 -19.2683693495 -148.018618 25.7342465811 0 0 0 0 0;
    1 6 0.05403 0.22304 0.0492 100 0 0 0 0 1 -360 360 81.5081041458 3.99540279606 -78.291471987 3.96870519783 0 0 0 0 0;
    2 4 0.00513178892945 0.0358558462497 0.0438 100 0 0 0 0 1 -360 360 47.6341816788 92.9927719363 -47.1 -93.8859944453 0 0 0 0 0;
    2 5 0.05811 0.17632 0.034 100 0 0 0 0 1 -360 360 68.2479886671 -3.47915734172 -65.7680356107 7.39116582118 0 0 0 0 0;
    2 6 0.05695 0.17388 0.0346 100 0 0 0 0 1 -360 360 50.4364476543 -0.261523731117 -49.1084350396 0.633482012288 0 0 0 0 0;
    3 5 0.06701 0.17103 0.0128 100 0 0 0 0 1 -360 360 -47.1 16.4162390123 48.7486550754 -13.5224399209 0 0 0 0 0;
    5 6 0.01335 0.04211 0 100 0 0 0 0 1 -360 360 -74.0513254825 20.5431780857 74.8144376182 -18.1360880455 0 0 0 0 0;
    5 8 0 0.20912 -0 100 0 0 0.978 0 1 -360 360 27.5153635743 -9.98246705968 -27.5153635743 11.6411612463 0 0 0 0 0;
    5 10 0 0.55618 -0 100 0 0 0.969 0 1 -360 360 15.7553424435 -0.529436926244 -15.7553424435 1.78561228826 0 0 0 0 0;
    6 7 0 0.25202 -0 100 0 0 0.932 0 1 -360 360 44.9854694084 11.9339008355 -44.9854694084 -7.36002631837 0 0 0 0 0;
    7 12 0.09498 0.1989 0 100 0 0 0 0 1 -360 360 7.89912602678 3.52801959832 -7.83703677013 -3.39799692884 0 0 0 0 0;
    7 13 0.12291 0.25581 0 100 0 0 0 0 1 -360 360 7.85648859285 2.4887459724 -7.78357537329 -2.33699322084 0 0 0 0 0;
    7 14 0.06615 0.13027 0 100 0 0 0 0 1 -360 360 18.0298547888 7.20631185818 -17.8120280247 -6.77734296099 0 0 0 0 0;
    8 9 0 0.17615 -0 100 0 0 0 0 1 -360 360 1.56612395018e-14 -17.5668520079 -1.5509279359e-14 18.0498870391 0 0 0 0 0;
    8 10 0 0.11001 -0 100 0 0 0 0 1 -360 360 27.5153635743 5.92569076157 -27.5153635743 -5.15126452814 0 0 0 0 0;
    10 11 0.03181 0.0845 0 100 0 0 0 0 1 -360 360 4.6901620065 4.26929901857 -4.6786674795 -4.23876498738 0 0 0 0 0;
    10 15 0.12711 0.27038 0 100 0 0 0 0 1 -360 360 9.08054401132 3.64668497875 -8.9712048494 -3.41410593225 0 0 0 0 0;
    11 12 0.08205 0.19207 0 100 0 0 0 0 1 -360 360 -4.3213325205 -1.56123501262 4.33703677013 1.59799692884 0 0 0 0 0;
    13 14 0.22092 0.19988 0 100 0 0 0 0 1 -360 360 1.68357537329 0.736993220835 -1.67687318528 -0.730929336441 0 0 0 0 0;
    14 15 0.17093 0.34802 0 100 0 0 0 0 1 -360 360 5.98890121002 1.70827229743 -5.9287951506 -1.58589406775 0 0 0 0 0;
];

